testData/tamu2000/pfcases_100_zone2326/Equ_tx2000_hr_5672_mod_v23_zone23_26_pslf.raw
0  100.000 
THIS IS A SYNTHETIC POWER SYSTEM MODEL THAT DOES NOT REPRESE
DATA RESEARCH PROJECT AND CONTAINS NO CEII.
1004,  2,  33.075,  -16.078,  0.000,  0.000,  1,  1.02597,  -36.2225,  'O DONNEL',  230.00,  9
1009,  2,  2.730,  -1.720,  0.000,  0.000,  1,  1.00878,  -30.4363,  'IRAAN 2 ',  13.800,  9
1012,  1,  0.086,  -11.883,  0.000,  0.000,  1,  1.02657,  -44.7700,  'SANDERSO',  115.00,  9
1021,  2,  22.233,  -12.739,  0.000,  0.000,  1,  1.00847,  -30.5190,  'BIG SPRI',  13.800,  9
1023,  2,  25.325,  -3.746,  0.000,  0.000,  1,  1.01000,  -30.0272,  'O DONNEL',  13.800,  9
1026,  2,  26.763,  -8.932,  0.000,  0.000,  1,  1.00538,  -28.6315,  'BIG SPRI',  13.800,  9
1033,  2,  6.070,  -6.390,  0.000,  0.000,  1,  1.00272,  -34.8466,  'MCCAMEY ',  230.00,  9
1035,  2,  39.649,  -11.364,  0.000,  0.000,  1,  1.00435,  -27.9966,  'BIG SPRI',  13.800,  9
1039,  2,  18.850,  -8.676,  0.000,  0.000,  1,  1.00000,  -27.5843,  'FORT STO',  22.000,  9
1042,  2,  38.966,  -5.170,  0.000,  0.000,  1,  1.00000,  -25.0883,  'FORSAN 1',  13.800,  9
1046,  1,  9.516,  -7.258,  0.000,  0.000,  1,  1.03001,  -41.6607,  'OZONA 0 ',  115.00,  9
1048,  2,  93.096,  -8.919,  0.000,  0.000,  1,  1.00000,  -20.1451,  'MONAHANS',  18.000,  9
1049,  2,  86.808,  2.781,  0.000,  0.000,  1,  1.00000,  -14.4868,  'MONAHANS',  18.000,  9
1053,  2,  49.064,  -15.382,  0.000,  0.000,  1,  1.00615,  -31.5466,  'MONAHANS',  230.00,  9
1057,  2,  57.256,  -14.759,  0.000,  0.000,  1,  1.00624,  -30.2114,  'LENORAH ',  18.000,  9
1063,  2,  47.091,  -5.438,  0.000,  0.000,  1,  1.02318,  -24.9781,  'BIG SPRI',  13.800,  9
1066,  2,  40.204,  -6.690,  0.000,  0.000,  1,  1.00000,  -25.4373,  'BIG SPRI',  13.800,  9
1070,  2,  4.189,  -1.320,  0.000,  0.000,  1,  1.04000,  -30.2791,  'IRAAN 1 ',  13.800,  9
1072,  3,  35.818,  -2.434,  0.000,  0.000,  1,  1.01000,  -34.9421,  'ODESSA 1',  18.000,  9
1073,  2,  23.047,  -2.539,  0.000,  0.000,  1,  1.01000,  -35.2771,  'ODESSA 1',  18.000,  9
1074,  2,  24.022,  -1.414,  0.000,  0.000,  1,  1.01000,  -35.4894,  'ODESSA 1',  18.000,  9
1075,  2,  28.902,  -1.733,  0.000,  0.000,  1,  1.01000,  -36.2957,  'ODESSA 1',  18.000,  9
1076,  2,  70.969,  -8.710,  0.000,  0.000,  1,  1.01000,  -37.9221,  'ODESSA 1',  18.000,  9
1077,  2,  24.663,  -1.663,  0.000,  0.000,  1,  1.01000,  -35.6173,  'ODESSA 1',  18.000,  9
1081,  2,  67.581,  -22.953,  0.000,  0.000,  1,  1.01000,  -33.9478,  'ODESSA 1',  230.00,  9
1082,  2,  34.291,  -23.945,  0.000,  0.000,  1,  1.01735,  -29.9867,  'FORT STO',  115.00,  9
1084,  2,  67.974,  -29.891,  0.000,  0.000,  1,  1.03699,  -35.3350,  'BIG SPRI',  115.00,  9
2004,  2,  132.301,  -28.338,  0.000,  0.000,  2,  1.02297,  -54.1911,  'SAVOY 2 ',  13.800,  11
2005,  2,  112.764,  -24.619,  0.000,  0.000,  2,  1.02198,  -54.0288,  'SAVOY 3 ',  13.800,  11
2006,  2,  74.040,  -16.082,  0.000,  0.000,  2,  1.02000,  -53.4084,  'SAVOY 4 ',  13.800,  11
2013,  2,  4.854,  -12.007,  0.000,  0.000,  2,  1.04227,  -40.0545,  'PANHANDL',  18.000,  10
2019,  2,  4.384,  31.443,  0.000,  0.000,  2,  1.04000,  -39.7349,  'PANHANDL',  20.000,  10
2024,  2,  66.101,  -19.612,  0.000,  0.000,  2,  1.02631,  -54.0584,  'PARIS 2 ',  13.800,  11
2042,  2,  6.494,  -2.079,  0.000,  0.000,  2,  1.02948,  -35.7769,  'PANHANDL',  18.000,  10
2057,  3,  184.651,  -72.110,  0.000,  0.000,  2,  0.99000,  -45.7227,  'WICHITA ',  18.000,  11
2059,  2,  3.806,  -1.148,  0.000,  0.000,  2,  1.02785,  -35.4153,  'WHITE DE',  13.800,  10
2062,  2,  56.970,  -24.437,  0.000,  0.000,  2,  1.02000,  -47.0362,  'VERNON 1',  18.000,  10
2095,  2,  4.402,  -0.834,  0.000,  0.000,  2,  1.03158,  -38.2260,  'PANHANDL',  13.800,  10
2100,  2,  9.060,  8.548,  0.000,  0.000,  2,  1.02120,  -38.2978,  'RALLS 1 ',  18.000,  10
2115,  2,  41.361,  -13.288,  0.000,  0.000,  2,  1.02325,  -53.4486,  'PARIS 1 ',  13.800,  11
2116,  2,  82.639,  -23.891,  0.000,  0.000,  2,  1.02683,  -54.0102,  'PARIS 1 ',  13.800,  11
2117,  2,  37.211,  -11.492,  0.000,  0.000,  2,  1.02176,  -53.2676,  'PARIS 1 ',  13.800,  11
2118,  2,  34.701,  -10.975,  0.000,  0.000,  2,  1.02085,  -53.1198,  'PARIS 1 ',  13.800,  11
2119,  2,  63.329,  -19.607,  0.000,  0.000,  2,  1.02597,  -53.8783,  'PARIS 1 ',  13.800,  11
2120,  2,  35.240,  -11.027,  0.000,  0.000,  2,  1.02129,  -53.1777,  'PARIS 1 ',  13.800,  11
2123,  2,  26.624,  -13.356,  0.000,  0.000,  2,  1.03761,  -37.2133,  'PANHANDL',  161.00,  10
2127,  2,  142.715,  -191.580,  0.000,  0.000,  2,  1.05143,  -41.9373,  'MIAMI 0 ',  500.00,  10
3001,  1,  0.000,  0.000,  0.000,  0.000,  3,  1.02280,  -65.6452,  'KERRVILL',  230.00,  28
3002,  1,  0.000,  0.000,  0.000,  0.000,  3,  1.01819,  -67.6025,  'KERRVILL',  115.00,  28
3005,  1,  0.000,  0.000,  0.000,  0.000,  3,  1.01553,  -74.1353,  'LEAKEY 0',  115.00,  28
3008,  1,  3.314,  4.359,  0.000,  0.000,  3,  1.02159,  -49.8538,  'COLEMAN ',  115.00,  27
3009,  1,  0.000,  0.000,  0.000,  0.000,  3,  1.02714,  -46.8609,  'SONORA 0',  115.00,  28
3010,  1,  0.000,  0.000,  0.000,  0.000,  3,  1.01825,  -72.5779,  'CAMP WOO',  115.00,  28
3011,  1,  0.000,  0.000,  0.000,  0.000,  3,  1.01027,  -71.2313,  'LLANO 0 ',  115.00,  28
3012,  1,  0.000,  0.000,  0.000,  0.000,  3,  0.99904,  -72.4615,  'WILLOW C',  115.00,  28
3014,  1,  0.000,  0.000,  0.000,  0.000,  3,  1.02722,  -62.0766,  'KINGSLAN',  115.00,  28
3017,  2,  12.922,  0.755,  0.000,  0.000,  3,  1.01000,  -37.1772,  'BLACKWEL',  18.000,  27
3018,  1,  -15.899,  -6.206,  0.000,  0.000,  3,  1.03093,  -45.1297,  'CHRISTOV',  230.00,  27
3019,  1,  108.537,  -8.128,  0.000,  0.000,  3,  1.03001,  -46.1820,  'CHRISTOV',  115.00,  27
3020,  2,  0.000,  0.000,  0.000,  0.000,  3,  1.03000,  -43.0261,  'CHRISTOV',  13.800,  27
3024,  1,  0.000,  0.000,  0.000,  0.000,  3,  1.02785,  -46.6527,  'ELDORADO',  115.00,  28
3025,  1,  0.000,  0.000,  0.000,  0.000,  3,  1.02197,  -55.2871,  'SAN SABA',  115.00,  28
3029,  1,  0.000,  0.000,  0.000,  0.000,  3,  1.03111,  -59.7371,  'LOMETA 0',  115.00,  28
3034,  2,  27.177,  2.269,  0.000,  0.000,  3,  1.03000,  -32.7766,  'SNYDER 1',  22.000,  27
3035,  1,  0.000,  0.000,  0.000,  0.000,  3,  1.02344,  -54.8454,  'CHEROKEE',  115.00,  28
3036,  1,  0.000,  0.000,  0.000,  0.000,  3,  1.02209,  -53.0175,  'RICHLAND',  115.00,  28
3039,  2,  26.744,  -3.529,  0.000,  0.000,  3,  1.04000,  -38.8191,  'ROSCOE 2',  13.800,  27
3045,  2,  1.273,  0.269,  0.000,  0.000,  3,  1.04000,  -36.6955,  'SILVER 4',  13.800,  27
3048,  2,  151.249,  -428.194,  0.000,  0.000,  3,  1.04397,  -48.1131,  'ROSCOE 5',  500.00,  27
3050,  1,  0.000,  -68.051,  0.000,  0.000,  3,  1.02322,  -51.1697,  'DEL RIO ',  230.00,  28
3051,  1,  0.000,  -20.501,  0.000,  0.000,  3,  1.01246,  -52.7697,  'DEL RIO ',  115.00,  28
3052,  1,  0.000,  0.000,  0.000,  0.000,  3,  1.02064,  -71.4272,  'HUNT 0  ',  115.00,  28
3055,  2,  40.364,  -2.166,  0.000,  0.000,  3,  1.04000,  -40.1029,  'WINGATE ',  13.800,  27
3056,  2,  28.389,  1.149,  0.000,  0.000,  3,  1.04000,  -38.7943,  'WINGATE ',  13.800,  27
3057,  2,  28.954,  0.868,  0.000,  0.000,  3,  1.04000,  -38.8767,  'WINGATE ',  13.800,  27
3060,  2,  7.152,  -0.190,  0.000,  0.000,  3,  1.04000,  -35.2833,  'STERLING',  18.000,  27
3061,  2,  6.899,  -0.112,  0.000,  0.000,  3,  1.04000,  -36.3839,  'STERLING',  18.000,  27
3062,  2,  5.300,  -1.724,  0.000,  0.000,  3,  1.04000,  -37.7449,  'STERLING',  18.000,  27
3063,  2,  7.328,  -0.215,  0.000,  0.000,  3,  1.04000,  -37.1586,  'STERLING',  18.000,  27
3065,  2,  -0.761,  -5.032,  0.000,  0.000,  3,  1.01254,  -34.5889,  'ROSCOE 4',  18.000,  27
3066,  1,  0.000,  0.000,  0.000,  0.000,  3,  1.02371,  -53.9050,  'BRADY 0 ',  115.00,  28
3068,  2,  26.860,  0.912,  0.000,  0.000,  3,  1.04000,  -37.1714,  'TRENT 1 ',  20.000,  27
3071,  2,  9.522,  -2.902,  0.000,  0.000,  3,  1.00726,  -37.1811,  'NOLAN 1 ',  24.000,  27
3073,  1,  0.000,  0.000,  0.000,  0.000,  3,  1.01285,  -72.4293,  'BRACKETT',  115.00,  28
3074,  2,  0.000,  0.000,  0.000,  0.000,  3,  1.00475,  -71.1510,  'BRACKETT',  13.800,  28
3075,  1,  0.000,  0.000,  0.000,  0.000,  3,  1.02602,  -51.9987,  'MASON 0 ',  115.00,  28
3076,  1,  0.000,  0.000,  0.000,  0.000,  3,  1.01442,  -72.6824,  'BRACKETT',  115.00,  28
3081,  2,  18.713,  -1.774,  0.000,  0.000,  3,  1.04000,  -37.1148,  'HERMLEIG',  20.000,  27
3084,  2,  16.790,  -7.917,  0.000,  0.000,  3,  1.00000,  -36.8824,  'MERKEL 1',  13.800,  27
3087,  2,  9.641,  -0.542,  0.000,  0.000,  3,  1.00542,  -33.4959,  'LORAINE ',  13.200,  27
3092,  2,  32.360,  2.159,  0.000,  0.000,  3,  1.04000,  -41.6956,  'ABILENE ',  13.800,  27
3093,  1,  0.000,  0.000,  0.000,  0.000,  3,  1.02030,  -72.2698,  'ROCKSPRI',  115.00,  28
3095,  2,  21.576,  5.702,  0.000,  0.000,  3,  1.04000,  -37.5547,  'MERKEL 2',  18.000,  27
3098,  2,  9.287,  -1.317,  0.000,  0.000,  3,  1.04000,  -32.8317,  'FLUVANNA',  13.800,  27
3101,  1,  0.000,  0.000,  0.000,  0.000,  3,  1.02323,  -56.8661,  'BUCHANAN',  115.00,  28
3104,  1,  0.000,  0.000,  0.000,  0.000,  3,  1.02090,  -56.9384,  'BUCHANAN',  115.00,  28
3105,  1,  -15.448,  0.740,  0.000,  0.000,  3,  1.02174,  -55.8300,  'BUCHANAN',  13.200,  28
3106,  3,  0.000,  0.000,  0.000,  0.000,  3,  1.00000,  -53.8813,  'BUCHANAN',  13.200,  28
3107,  1,  0.000,  0.000,  0.000,  0.000,  3,  1.01765,  -69.4116,  'INGRAM 0',  115.00,  28
3108,  1,  0.000,  0.000,  0.000,  0.000,  3,  1.01958,  -61.7483,  'KEMPNER ',  115.00,  28
3110,  2,  9.133,  -1.224,  0.000,  0.000,  3,  1.04000,  -33.3927,  'FLUVANNA',  13.800,  27
3118,  2,  26.909,  -3.469,  0.000,  0.000,  3,  1.00000,  -34.2756,  'SYNDER 2',  13.800,  27
3119,  1,  0.000,  0.000,  0.000,  0.000,  3,  1.03193,  -71.2460,  'BRACKETT',  115.00,  28
3120,  1,  -12.868,  0.000,  0.000,  0.000,  3,  1.03218,  -70.6173,  'BRACKETT',  13.800,  28
3122,  2,  16.497,  -1.678,  0.000,  0.000,  3,  1.00000,  -31.4952,  'ROSCOE 1',  18.000,  27
3123,  1,  0.000,  0.000,  0.000,  0.000,  3,  1.01159,  -74.0630,  'UVALDE 0',  115.00,  28
3124,  1,  0.000,  -38.009,  0.000,  0.000,  3,  1.03000,  -68.9222,  'FREDERIC',  115.00,  28
3126,  1,  0.000,  -46.897,  0.000,  0.000,  3,  1.02087,  -75.6400,  'SABINAL ',  115.00,  28
3127,  2,  9.547,  -1.827,  0.000,  0.000,  3,  1.01934,  -36.2431,  'SWEETWAT',  115.00,  27
3129,  2,  14.561,  -27.509,  0.000,  0.000,  3,  1.02465,  -36.2030,  'ROSCOE 3',  115.00,  27
3131,  2,  80.903,  -9.626,  0.000,  0.000,  3,  1.02000,  -40.0986,  'TUSOCOLA',  115.00,  27
3132,  1,  0.000,  0.000,  0.000,  0.000,  3,  1.02468,  -52.0398,  'EDEN 0  ',  115.00,  28
3137,  2,  92.948,  -14.269,  0.000,  0.000,  3,  1.03000,  -40.7012,  'SWEETWAT',  115.00,  27
3138,  1,  0.000,  0.000,  0.000,  0.000,  3,  1.02875,  -51.4444,  'MENARD 0',  115.00,  28
3141,  2,  15.739,  -8.210,  0.000,  0.000,  3,  1.02158,  -37.0759,  'SWEETWAT',  115.00,  27
3142,  1,  55.649,  -20.888,  0.000,  0.000,  3,  1.03000,  -52.2720,  'GOODFELL',  115.00,  27
3143,  1,  0.000,  -13.858,  0.000,  0.000,  3,  1.03000,  -51.0916,  'SANTA AN',  115.00,  28
3144,  1,  0.000,  0.000,  0.000,  0.000,  3,  1.02617,  -51.7219,  'ROWENA 0',  115.00,  28
3146,  1,  0.000,  -5.045,  0.000,  0.000,  3,  1.03001,  -49.3791,  'JUNCTION',  115.00,  28
3147,  1,  0.000,  -14.496,  0.000,  0.000,  3,  1.03000,  -61.0494,  'LAMPASAS',  115.00,  28
4002,  1,  0.000,  0.000,  0.000,  0.000,  4,  1.02568,  -71.7713,  'LAUGHLIN',  115.00,  20
4004,  1,  0.000,  0.000,  0.000,  0.000,  4,  1.02729,  -76.3214,  'LAREDO 7',  230.00,  20
4005,  1,  0.000,  -64.376,  0.000,  0.000,  4,  1.03001,  -79.5492,  'LAREDO 7',  115.00,  20
4006,  1,  0.000,  0.000,  0.000,  0.000,  4,  1.02967,  -76.7388,  'BRUNI 2 ',  115.00,  20
4008,  1,  0.000,  0.000,  0.000,  0.000,  4,  1.01651,  -66.4848,  'POTEET 0',  115.00,  20
4010,  2,  10.278,  -5.718,  0.000,  0.000,  4,  1.03000,  -77.2558,  'SARITA 3',  20.000,  21
4011,  1,  30.212,  -6.001,  0.000,  0.000,  4,  1.02562,  -79.3447,  'HEBBRONV',  115.00,  19
4014,  1,  0.000,  0.000,  0.000,  0.000,  4,  1.02625,  -71.1068,  'EAGLE PA',  230.00,  20
4015,  1,  0.000,  -50.172,  0.000,  0.000,  4,  1.03002,  -72.0778,  'EAGLE PA',  115.00,  20
4016,  1,  0.000,  0.000,  0.000,  0.000,  4,  1.02260,  -66.3580,  'CHARLOTT',  115.00,  20
4022,  1,  0.000,  0.000,  0.000,  0.000,  4,  1.01916,  -78.2876,  'ENCINAL ',  115.00,  20
4023,  1,  0.000,  0.000,  0.000,  0.000,  4,  1.02100,  -66.2245,  'MOORE 0 ',  115.00,  20
4024,  1,  0.000,  0.000,  0.000,  0.000,  4,  1.02885,  -64.6186,  'CHRISTIN',  230.00,  20
4025,  1,  0.000,  0.000,  0.000,  0.000,  4,  1.02658,  -65.8263,  'CHRISTIN',  115.00,  20
4026,  2,  0.000,  0.000,  0.000,  0.000,  4,  1.03000,  -62.4055,  'CHRISTIN',  13.800,  20
4029,  1,  18.752,  5.636,  0.000,  0.000,  4,  1.01650,  -61.3269,  'FANNIN 1',  115.00,  21
4030,  3,  -2.091,  -0.046,  0.000,  0.000,  4,  1.01000,  -59.4115,  'FANNIN 2',  13.800,  21
4031,  1,  0.000,  0.000,  0.000,  0.000,  4,  1.02525,  -80.1149,  'SAN YGNA',  115.00,  20
4033,  1,  0.000,  0.000,  0.000,  0.000,  4,  1.01579,  -79.7785,  'LAREDO 6',  115.00,  20
4036,  1,  0.000,  0.000,  0.000,  0.000,  4,  1.00795,  -72.8967,  'CRYSTAL ',  115.00,  20
4043,  1,  48.591,  1.303,  0.000,  0.000,  4,  1.01529,  -82.2806,  'FALCON H',  115.00,  19
4045,  2,  15.033,  1.626,  0.000,  0.000,  4,  1.02000,  -79.4543,  'FALCON H',  13.800,  19
4047,  2,  21.418,  3.537,  0.000,  0.000,  4,  1.02000,  -78.3476,  'FALCON H',  13.800,  19
4050,  2,  20.398,  -8.674,  0.000,  0.000,  4,  1.01008,  -87.3174,  'SEBASTIA',  13.800,  19
4058,  2,  34.528,  2.186,  0.000,  0.000,  4,  1.03000,  -70.6731,  'GREGORY ',  13.800,  21
4059,  2,  32.881,  1.729,  0.000,  0.000,  4,  1.03000,  -70.8854,  'GREGORY ',  13.800,  21
4060,  2,  28.062,  1.655,  0.000,  0.000,  4,  1.03000,  -70.0684,  'GREGORY ',  13.800,  21
4061,  2,  35.361,  2.250,  0.000,  0.000,  4,  1.03000,  -70.4297,  'GREGORY ',  13.800,  21
4062,  2,  32.968,  1.472,  0.000,  0.000,  4,  1.03000,  -70.0285,  'GREGORY ',  13.800,  21
4063,  2,  34.788,  2.664,  0.000,  0.000,  4,  1.03000,  -70.4007,  'GREGORY ',  13.800,  21
4073,  1,  1383.672,  -224.155,  0.000,  0.000,  4,  1.02341,  -88.6237,  'MISSION ',  230.00,  19
4082,  2,  14.791,  0.160,  0.000,  0.000,  4,  1.04000,  -71.7684,  'CORPUS C',  13.800,  21
4083,  2,  16.953,  -0.573,  0.000,  0.000,  4,  1.04000,  -72.0678,  'CORPUS C',  13.800,  21
4084,  2,  34.087,  -3.016,  0.000,  0.000,  4,  1.04000,  -73.6579,  'CORPUS C',  13.800,  21
4085,  2,  37.171,  -3.971,  0.000,  0.000,  4,  1.04000,  -73.2024,  'CORPUS C',  13.800,  21
4101,  1,  0.000,  0.000,  0.000,  0.000,  4,  1.01419,  -79.6371,  'LAREDO 3',  115.00,  20
4113,  1,  0.000,  0.000,  0.000,  0.000,  4,  1.02827,  -77.4533,  'LAREDO 1',  230.00,  20
4114,  1,  0.000,  0.000,  0.000,  0.000,  4,  1.02258,  -78.8704,  'LAREDO 1',  115.00,  20
4115,  2,  0.000,  0.000,  0.000,  0.000,  4,  1.04000,  -76.3203,  'LAREDO 1',  13.800,  20
4116,  2,  0.000,  0.000,  0.000,  0.000,  4,  1.04000,  -76.2667,  'LAREDO 1',  13.800,  20
4117,  1,  0.000,  0.000,  0.000,  0.000,  4,  1.02447,  -66.3582,  'JOURDANT',  115.00,  20
4118,  1,  67.565,  -8.302,  0.000,  0.000,  4,  1.01274,  -81.1563,  'GEORGE W',  115.00,  21
4125,  1,  46.619,  2.917,  0.000,  0.000,  4,  1.00955,  -68.1551,  'PETTUS 0',  115.00,  21
4129,  1,  0.000,  0.000,  0.000,  0.000,  4,  1.03439,  -79.4295,  'PREMONT ',  115.00,  20
4130,  1,  0.000,  -8.708,  0.000,  0.000,  4,  1.03001,  -80.4868,  'FREER 0 ',  115.00,  20
4131,  1,  -0.001,  -64.198,  0.000,  0.000,  4,  1.03001,  -68.2812,  'PEARSALL',  230.00,  20
4132,  1,  0.000,  0.000,  0.000,  0.000,  4,  1.02723,  -69.2507,  'PEARSALL',  115.00,  20
4133,  2,  0.000,  0.000,  0.000,  0.000,  4,  1.03001,  -68.2812,  'PEARSALL',  20.000,  20
4134,  2,  0.000,  0.000,  0.000,  0.000,  4,  1.03001,  -68.2812,  'PEARSALL',  20.000,  20
4135,  2,  0.000,  0.000,  0.000,  0.000,  4,  1.03001,  -68.2812,  'PEARSALL',  20.000,  20
4136,  2,  0.000,  0.000,  0.000,  0.000,  4,  1.03001,  -68.2812,  'PEARSALL',  20.000,  20
4137,  2,  0.000,  0.000,  0.000,  0.000,  4,  1.03001,  -68.2812,  'PEARSALL',  20.000,  20
4138,  2,  0.000,  0.000,  0.000,  0.000,  4,  1.03001,  -68.2812,  'PEARSALL',  20.000,  20
4140,  1,  158.757,  -35.202,  0.000,  0.000,  4,  1.03487,  -78.2603,  'SARITA 1',  230.00,  21
4142,  2,  0.000,  0.000,  0.000,  0.000,  4,  1.04000,  -77.1961,  'SARITA 1',  13.800,  21
4143,  1,  0.000,  0.000,  0.000,  0.000,  4,  1.01438,  -71.6886,  'DILLEY 0',  115.00,  20
4146,  1,  0.000,  0.000,  0.000,  0.000,  4,  1.02669,  -77.4655,  'LAREDO 4',  230.00,  20
4147,  1,  0.000,  -106.033,  0.000,  0.000,  4,  1.02974,  -78.9428,  'LAREDO 4',  115.00,  20
4148,  1,  0.000,  0.000,  0.000,  0.000,  4,  1.01581,  -81.5854,  'THREE RI',  115.00,  20
4153,  2,  27.838,  -25.427,  0.000,  0.000,  4,  1.04000,  -79.1326,  'ARMSTRON',  18.000,  21
4160,  2,  100.726,  12.720,  0.000,  0.000,  4,  1.03000,  -71.9257,  'CORPUS C',  13.800,  21
4161,  2,  43.486,  6.747,  0.000,  0.000,  4,  1.03000,  -69.7391,  'CORPUS C',  13.800,  21
4162,  2,  43.998,  5.882,  0.000,  0.000,  4,  1.03000,  -69.7813,  'CORPUS C',  13.800,  21
4166,  2,  12.195,  -4.948,  0.000,  0.000,  4,  1.01435,  -76.5576,  'SARITA 2',  13.800,  21
4172,  1,  0.000,  0.000,  0.000,  0.000,  4,  1.02020,  -67.6456,  'PLEASANT',  115.00,  20
4174,  1,  -0.002,  -50.267,  0.000,  0.000,  4,  1.03000,  -65.8290,  'LYTLE 0 ',  115.00,  20
4175,  1,  0.000,  -11.281,  0.000,  0.000,  4,  1.03001,  -78.6426,  'LAREDO 2',  115.00,  20
4176,  1,  0.000,  0.000,  0.000,  0.000,  4,  1.03829,  -77.2174,  'BRUNI 1 ',  115.00,  20
4177,  2,  0.000,  0.000,  0.000,  0.000,  4,  1.04000,  -75.5001,  'BRUNI 1 ',  13.800,  20
4178,  1,  57.148,  -38.084,  0.000,  0.000,  4,  1.03002,  -69.9613,  'GOLIAD 0',  115.00,  21
4179,  1,  0.000,  0.000,  0.000,  0.000,  4,  1.02475,  -81.0517,  'SAN DIEG',  115.00,  20
4183,  2,  84.850,  -15.209,  0.000,  0.000,  4,  1.02692,  -80.2934,  'SAN PERL',  230.00,  19
4187,  1,  0.000,  0.000,  0.000,  0.000,  4,  1.00985,  -76.8819,  'COTULLA ',  115.00,  20
4188,  1,  0.000,  0.000,  0.000,  0.000,  4,  1.03292,  -71.6803,  'QUEMADO ',  115.00,  20
4189,  1,  0.000,  0.000,  0.000,  0.000,  4,  1.00404,  -74.4084,  'CARRIZO ',  115.00,  20
4190,  1,  0.000,  0.000,  0.000,  0.000,  4,  1.01847,  -79.4272,  'LAREDO 5',  115.00,  20
4192,  2,  477.125,  40.484,  0.000,  0.000,  4,  1.02000,  -81.0940,  'BROWNSVI',  230.00,  19
4194,  2,  529.419,  -54.599,  0.000,  0.000,  4,  1.02000,  -89.6731,  'SEBASTIA',  115.00,  19
4195,  2,  0.000,  0.000,  0.000,  0.000,  4,  1.02883,  -71.2839,  'OILTON 0',  500.00,  20
4196,  1,  0.000,  -7.056,  0.000,  0.000,  4,  1.03002,  -73.6383,  'OILTON 1',  230.00,  20
...
 0 /End of Bus data, Begin Generator data
1004,  '1',  80.839,  -30.380,  44.940,  -30.380,  1.01000,  0,  253.200,  0.00000,  1.00000,  0.00000,  0.00000,  1.00000,  1,  100.0,  211.000,  63.300
1009,  '1',  31.605,  -11.880,  17.570,  -11.880,  1.00000,  0,  99.000,  0.00000,  1.00000,  0.00000,  0.00000,  1.00000,  1,  100.0,  82.500,  24.750
1021,  '1',  76.436,  -28.730,  42.490,  -28.730,  1.00000,  0,  239.400,  0.00000,  1.00000,  0.00000,  0.00000,  1.00000,  1,  100.0,  199.500,  59.850
1023,  '1',  68.962,  -12.415,  38.340,  -25.920,  1.01000,  0,  216.000,  0.00000,  1.00000,  0.00000,  0.00000,  1.00000,  1,  100.0,  180.000,  54.000
1026,  '1',  47.584,  -17.880,  26.450,  -17.880,  1.00000,  0,  149.040,  0.00000,  1.00000,  0.00000,  0.00000,  1.00000,  1,  100.0,  124.200,  37.260
1033,  '1',  106.508,  -40.030,  59.210,  -40.030,  1.00000,  0,  333.600,  0.00000,  1.00000,  0.00000,  0.00000,  1.00000,  1,  100.0,  278.000,  83.400
1035,  '1',  34.481,  -12.960,  19.170,  -12.960,  1.00000,  0,  108.000,  0.00000,  1.00000,  0.00000,  0.00000,  1.00000,  1,  100.0,  90.000,  27.000
1039,  '1',  56.513,  -20.777,  31.420,  -21.240,  1.00000,  0,  177.000,  0.00000,  1.00000,  0.00000,  0.00000,  1.00000,  1,  100.0,  147.500,  44.250
1042,  '1',  62.270,  -11.174,  25.960,  -17.550,  1.00000,  0,  146.280,  0.00000,  1.00000,  0.00000,  0.00000,  1.00000,  1,  100.0,  121.900,  36.570
1048,  '1',  188.620,  -5.075,  165.530,  -36.100,  1.00000,  0,  390.240,  0.00000,  0.10170,  0.00000,  0.00000,  1.00000,  1,  100.0,  325.200,  97.560
1049,  '1',  188.620,  12.628,  165.530,  -36.100,  1.00000,  0,  390.240,  0.00000,  0.13490,  0.00000,  0.00000,  1.00000,  1,  100.0,  325.200,  97.560
1053,  '1',  53.640,  -19.850,  91.010,  -19.850,  1.00000,  0,  214.560,  0.00000,  0.16870,  0.00000,  0.00000,  1.00000,  1,  100.0,  178.800,  53.640
1057,  '1',  61.300,  -17.280,  25.560,  -17.280,  1.00000,  0,  144.000,  0.00000,  1.00000,  0.00000,  0.00000,  1.00000,  1,  100.0,  120.000,  36.000
1063,  '1',  99.650,  0.000,  0.000,  0.000,  1.01000,  0,  276.000,  0.00000,  1.00000,  0.00000,  0.00000,  1.00000,  1,  100.0,  230.000,  69.000
1066,  '1',  54.598,  -11.225,  30.350,  -20.520,  1.00000,  0,  171.000,  0.00000,  1.00000,  0.00000,  0.00000,  1.00000,  1,  100.0,  142.500,  42.750
1070,  '1',  61.494,  21.627,  34.190,  -23.110,  1.04000,  0,  192.600,  0.00000,  1.00000,  0.00000,  0.00000,  1.00000,  1,  100.0,  160.500,  48.150
1072,  '1',  95.192,  -6.365,  97.800,  -21.330,  1.01000,  0,  230.560,  0.00000,  0.30820,  0.00000,  0.00000,  1.00000,  1,  100.0,  192.130,  57.640
1073,  '1',  57.640,  -6.430,  97.800,  -21.330,  1.01000,  0,  230.560,  0.00000,  0.19480,  0.00000,  0.00000,  1.00000,  1,  100.0,  192.130,  57.640
1074,  '1',  57.640,  -3.578,  97.800,  -21.330,  1.01000,  0,  230.560,  0.00000,  0.20960,  0.00000,  0.00000,  1.00000,  1,  100.0,  192.130,  57.640
1075,  '1',  57.640,  -4.216,  97.800,  -21.330,  1.01000,  0,  230.560,  0.00000,  0.12370,  0.00000,  0.00000,  1.00000,  1,  100.0,  192.130,  57.640
1076,  '1',  57.640,  -8.282,  97.800,  -21.330,  1.01000,  0,  230.560,  0.00000,  0.10660,  0.00000,  0.00000,  1.00000,  1,  100.0,  192.130,  57.640
1077,  '1',  57.640,  -4.145,  97.800,  -21.330,  1.01000,  0,  230.560,  0.00000,  0.15380,  0.00000,  0.00000,  1.00000,  1,  100.0,  192.130,  57.640
1081,  '1',  166.170,  -3.370,  145.830,  -31.800,  1.01000,  0,  343.800,  0.00000,  0.14960,  0.00000,  0.00000,  1.00000,  1,  100.0,  286.500,  85.950
1082,  '1',  57.469,  -21.600,  31.950,  -21.600,  1.00000,  0,  180.000,  0.00000,  1.00000,  0.00000,  0.00000,  1.00000,  1,  100.0,  150.000,  45.000
1084,  '1',  44.248,  24.600,  24.600,  -16.630,  1.04000,  0,  138.600,  0.00000,  1.00000,  0.00000,  0.00000,  1.00000,  1,  100.0,  115.500,  34.650
2004,  '1',  117.540,  -43.490,  199.430,  -43.490,  1.02000,  0,  470.160,  0.00000,  0.10640,  0.00000,  0.00000,  1.00000,  1,  100.0,  391.800,  117.540
2005,  '1',  117.540,  -43.490,  199.430,  -43.490,  1.02000,  0,  470.160,  0.00000,  0.22750,  0.00000,  0.00000,  1.00000,  1,  100.0,  391.800,  117.540
2006,  '1',  117.540,  -34.414,  199.430,  -43.490,  1.02000,  0,  470.160,  0.00000,  0.20040,  0.00000,  0.00000,  1.00000,  1,  100.0,  391.800,  117.540
2013,  '1',  57.338,  -28.890,  42.730,  -28.890,  1.00000,  0,  240.720,  0.00000,  1.00000,  0.00000,  0.00000,  1.00000,  1,  100.0,  200.600,  60.180
2019,  '1',  133.109,  -4.758,  46.430,  -31.390,  1.04000,  0,  261.600,  0.00000,  1.00000,  0.00000,  0.00000,  1.00000,  1,  100.0,  218.000,  65.400
2024,  '1',  50.000,  -18.500,  84.830,  -18.500,  1.02000,  0,  200.000,  0.00000,  0.15080,  0.00000,  0.00000,  1.00000,  1,  100.0,  166.670,  50.000
2042,  '1',  45.076,  -11.460,  16.950,  -11.460,  1.01000,  0,  95.520,  0.00000,  1.00000,  0.00000,  0.00000,  1.00000,  1,  100.0,  79.600,  23.880
2057,  '1',  357.190,  -194.019,  335.520,  -87.840,  0.99000,  0,  864.000,  0.00000,  0.17700,  0.00000,  0.00000,  1.00000,  1,  100.0,  720.000,  216.000
2059,  '1',  36.636,  -11.520,  17.040,  -11.520,  1.00000,  0,  96.000,  0.00000,  1.00000,  0.00000,  0.00000,  1.00000,  1,  100.0,  80.000,  24.000
2062,  '1',  39.623,  -15.542,  28.840,  -19.500,  1.02000,  0,  162.480,  0.00000,  1.00000,  0.00000,  0.00000,  1.00000,  1,  100.0,  135.400,  40.620
2095,  '1',  30.298,  -11.450,  16.930,  -11.450,  1.00000,  0,  95.400,  0.00000,  1.00000,  0.00000,  0.00000,  1.00000,  1,  100.0,  79.500,  23.850
2100,  '1',  44.688,  -21.600,  31.950,  -21.600,  1.02000,  0,  180.000,  0.00000,  1.00000,  0.00000,  0.00000,  1.00000,  1,  100.0,  150.000,  45.000
2115,  '1',  55.410,  -20.500,  94.020,  -20.500,  1.00000,  0,  221.660,  0.00000,  0.14250,  0.00000,  0.00000,  1.00000,  1,  100.0,  184.720,  55.410
2116,  '1',  55.410,  -20.500,  94.020,  -20.500,  1.00000,  0,  221.660,  0.00000,  0.18690,  0.00000,  0.00000,  1.00000,  1,  100.0,  184.720,  55.410
2117,  '1',  55.410,  -20.500,  94.020,  -20.500,  1.00000,  0,  221.660,  0.00000,  0.32540,  0.00000,  0.00000,  1.00000,  1,  100.0,  184.720,  55.410
2118,  '1',  55.410,  -20.500,  94.020,  -20.500,  1.00000,  0,  221.660,  0.00000,  0.10610,  0.00000,  0.00000,  1.00000,  1,  100.0,  184.720,  55.410
2119,  '1',  55.410,  -20.500,  94.020,  -20.500,  1.00000,  0,  221.660,  0.00000,  0.13600,  0.00000,  0.00000,  1.00000,  1,  100.0,  184.720,  55.410
2120,  '1',  55.410,  -20.500,  94.020,  -20.500,  1.01000,  0,  221.660,  0.00000,  0.20680,  0.00000,  0.00000,  1.00000,  1,  100.0,  184.720,  55.410
2123,  '1',  102.898,  -26.160,  38.700,  -26.160,  1.00000,  0,  218.040,  0.00000,  1.00000,  0.00000,  0.00000,  1.00000,  1,  100.0,  181.700,  54.510
2127,  '1',  76.149,  -41.560,  61.470,  -41.560,  1.04000,  0,  346.320,  0.00000,  1.00000,  0.00000,  0.00000,  1.00000,  1,  100.0,  288.600,  86.580
3017,  '1',  64.942,  -13.703,  36.100,  -24.410,  1.01000,  0,  203.400,  0.00000,  1.00000,  0.00000,  0.00000,  1.00000,  1,  100.0,  169.500,  50.850
3020,  '1',  57.469,  -1.482,  31.950,  -21.600,  1.03000,  0,  180.000,  0.00000,  1.00000,  0.00000,  0.00000,  1.00000,  1,  100.0,  150.000,  45.000
3034,  '1',  49.995,  7.455,  27.800,  -18.790,  1.03000,  0,  156.600,  0.00000,  1.00000,  0.00000,  0.00000,  1.00000,  1,  100.0,  130.500,  39.150
3039,  '1',  80.073,  15.246,  44.520,  -30.100,  1.04000,  0,  250.800,  0.00000,  1.00000,  0.00000,  0.00000,  1.00000,  1,  100.0,  209.000,  62.700
3045,  '1',  134.100,  11.154,  227.520,  -49.620,  1.04000,  0,  536.400,  0.00000,  0.14470,  0.00000,  0.00000,  1.00000,  1,  100.0,  447.000,  134.100
3048,  '1',  92.333,  -34.700,  51.330,  -34.700,  1.04000,  0,  289.200,  0.00000,  1.00000,  0.00000,  0.00000,  1.00000,  1,  100.0,  241.000,  72.300
3055,  '1',  93.932,  14.741,  52.220,  -35.300,  1.04000,  0,  294.200,  0.00000,  1.00000,  0.00000,  0.00000,  1.00000,  1,  100.0,  245.170,  73.550
3056,  '1',  93.932,  8.868,  52.220,  -35.300,  1.04000,  0,  294.200,  0.00000,  1.00000,  0.00000,  0.00000,  1.00000,  1,  100.0,  245.170,  73.550
3057,  '1',  93.932,  8.073,  52.220,  -35.300,  1.04000,  0,  294.200,  0.00000,  1.00000,  0.00000,  0.00000,  1.00000,  1,  100.0,  245.170,  73.550
3060,  '1',  63.456,  4.454,  35.280,  -23.850,  1.04000,  0,  198.750,  0.00000,  1.00000,  0.00000,  0.00000,  1.00000,  1,  100.0,  165.630,  49.690
3061,  '1',  63.456,  5.347,  35.280,  -23.850,  1.04000,  0,  198.750,  0.00000,  1.00000,  0.00000,  0.00000,  1.00000,  1,  100.0,  165.630,  49.690
3062,  '1',  63.456,  8.602,  35.280,  -23.850,  1.04000,  0,  198.750,  0.00000,  1.00000,  0.00000,  0.00000,  1.00000,  1,  100.0,  165.630,  49.690
3063,  '1',  63.456,  6.122,  35.280,  -23.850,  1.04000,  0,  198.750,  0.00000,  1.00000,  0.00000,  0.00000,  1.00000,  1,  100.0,  165.630,  49.690
3065,  '1',  30.839,  -11.590,  17.150,  -11.590,  1.00000,  0,  96.600,  0.00000,  1.00000,  0.00000,  0.00000,  1.00000,  1,  100.0,  80.500,  24.150
3068,  '1',  57.469,  21.067,  31.950,  -21.600,  1.04000,  0,  180.000,  0.00000,  1.00000,  0.00000,  0.00000,  1.00000,  1,  100.0,  150.000,  45.000
3071,  '1',  65.208,  -24.510,  36.250,  -24.510,  1.00000,  0,  204.240,  0.00000,  1.00000,  0.00000,  0.00000,  1.00000,  1,  100.0,  170.200,  51.060
3074,  '1',  38.236,  -14.370,  21.260,  -14.370,  1.00000,  0,  119.760,  0.00000,  1.00000,  0.00000,  0.00000,  1.00000,  1,  100.0,  99.800,  29.940
3081,  '1',  95.398,  9.520,  53.040,  -35.860,  1.04000,  0,  298.800,  0.00000,  1.00000,  0.00000,  0.00000,  1.00000,  1,  100.0,  249.000,  74.700
3084,  '1',  89.074,  -29.228,  49.520,  -33.480,  1.00000,  0,  279.000,  0.00000,  1.00000,  0.00000,  0.00000,  1.00000,  1,  100.0,  232.500,  69.750
3087,  '1',  38.312,  -10.800,  15.970,  -10.800,  1.00000,  0,  90.000,  0.00000,  1.00000,  0.00000,  0.00000,  1.00000,  1,  100.0,  75.000,  22.500
3092,  '1',  76.625,  9.558,  42.600,  -28.800,  1.04000,  0,  240.000,  0.00000,  1.00000,  0.00000,  0.00000,  1.00000,  1,  100.0,  200.000,  60.000
3095,  '1',  46.205,  8.279,  25.690,  -17.370,  1.04000,  0,  144.720,  0.00000,  1.00000,  0.00000,  0.00000,  1.00000,  1,  100.0,  120.600,  36.180
3098,  '1',  61.300,  5.565,  34.080,  -23.040,  1.04000,  0,  192.000,  0.00000,  1.00000,  0.00000,  0.00000,  1.00000,  1,  100.0,  160.000,  48.000
3106,  '1',  39.986,  -18.961,  62.477,  -2.690,  1.00000,  0,  65.880,  0.00000,  0.29220,  0.00000,  0.00000,  1.00000,  1,  100.0,  162.800,  0.000
3110,  '1',  32.182,  5.093,  17.890,  -12.100,  1.04000,  0,  100.800,  0.00000,  1.00000,  0.00000,  0.00000,  1.00000,  1,  100.0,  84.000,  25.200
3118,  '1',  45.975,  -16.041,  25.560,  -17.280,  1.00000,  0,  144.000,  0.00000,  1.00000,  0.00000,  0.00000,  1.00000,  1,  100.0,  120.000,  36.000
3122,  '1',  75.475,  -19.766,  41.960,  -28.370,  1.00000,  0,  236.400,  0.00000,  1.00000,  0.00000,  0.00000,  1.00000,  1,  100.0,  197.000,  59.100
3127,  '1',  51.722,  -19.440,  28.760,  -19.440,  1.00000,  0,  162.000,  0.00000,  1.00000,  0.00000,  0.00000,  1.00000,  1,  100.0,  135.000,  40.500
3129,  '1',  48.468,  -18.220,  26.940,  -18.220,  1.00000,  0,  151.800,  0.00000,  1.00000,  0.00000,  0.00000,  1.00000,  1,  100.0,  126.500,  37.950
3131,  '1',  43.676,  -9.640,  24.280,  -16.420,  1.02000,  0,  136.800,  0.00000,  1.00000,  0.00000,  0.00000,  1.00000,  1,  100.0,  114.000,  34.200
3137,  '1',  38.772,  16.774,  21.560,  -14.570,  1.03000,  0,  121.440,  0.00000,  1.00000,  0.00000,  0.00000,  1.00000,  1,  100.0,  101.200,  30.360
3141,  '1',  35.053,  -13.180,  19.490,  -13.180,  1.00000,  0,  109.800,  0.00000,  1.00000,  0.00000,  0.00000,  1.00000,  1,  100.0,  91.500,  27.450
4010,  '1',  77.238,  2.340,  42.940,  -29.030,  1.03000,  0,  241.920,  0.00000,  1.00000,  0.00000,  0.00000,  1.00000,  1,  100.0,  201.600,  60.480
4026,  '1',  123.000,  3.198,  191.060,  -50.020,  1.03000,  0,  492.000,  0.00000,  0.32770,  0.00000,  0.00000,  1.00000,  1,  100.0,  410.000,  123.000
4030,  '1',  66.552,  -44.867,  290.040,  -75.930,  1.01000,  0,  746.880,  0.00000,  0.27970,  0.00000,  0.00000,  1.00000,  1,  100.0,  622.400,  186.720
4045,  '1',  32.424,  0.482,  35.862,  -1.540,  1.02000,  0,  37.800,  0.00000,  0.20950,  0.00000,  0.00000,  1.00000,  1,  100.0,  93.400,  0.000
4047,  '1',  67.937,  2.253,  75.102,  -3.230,  1.02000,  0,  79.200,  0.00000,  0.32270,  0.00000,  0.00000,  1.00000,  1,  100.0,  195.700,  0.000
4050,  '1',  76.625,  -28.800,  42.600,  -28.800,  1.00000,  0,  240.000,  0.00000,  1.00000,  0.00000,  0.00000,  1.00000,  1,  100.0,  200.000,  60.000
4058,  '1',  43.200,  5.446,  73.300,  -15.980,  1.03000,  0,  172.800,  0.00000,  0.13700,  0.00000,  0.00000,  1.00000,  1,  100.0,  144.000,  43.200
4059,  '1',  43.200,  5.729,  73.300,  -15.980,  1.03000,  0,  172.800,  0.00000,  0.15140,  0.00000,  0.00000,  1.00000,  1,  100.0,  144.000,  43.200
4060,  '1',  43.200,  3.764,  73.300,  -15.980,  1.03000,  0,  172.800,  0.00000,  0.13940,  0.00000,  0.00000,  1.00000,  1,  100.0,  144.000,  43.200
4061,  '1',  51.700,  5.424,  87.720,  -19.130,  1.03000,  0,  206.800,  0.00000,  0.21560,  0.00000,  0.00000,  1.00000,  1,  100.0,  172.330,  51.700
4062,  '1',  51.700,  3.663,  87.720,  -19.130,  1.03000,  0,  206.800,  0.00000,  0.25930,  0.00000,  0.00000,  1.00000,  1,  100.0,  172.330,  51.700
4063,  '1',  51.700,  5.987,  87.720,  -19.130,  1.03000,  0,  206.800,  0.00000,  0.14410,  0.00000,  0.00000,  1.00000,  1,  100.0,  172.330,  51.700
4082,  '1',  141.170,  12.306,  123.890,  -27.020,  1.04000,  0,  292.080,  0.00000,  0.13810,  0.00000,  0.00000,  1.00000,  1,  100.0,  243.400,  73.020
4083,  '1',  141.170,  12.892,  123.890,  -27.020,  1.04000,  0,  292.080,  0.00000,  0.15700,  0.00000,  0.00000,  1.00000,  1,  100.0,  243.400,  73.020
4084,  '1',  141.170,  22.112,  123.890,  -27.020,  1.04000,  0,  292.080,  0.00000,  0.19110,  0.00000,  0.00000,  1.00000,  1,  100.0,  243.400,  73.020
4085,  '1',  204.160,  24.720,  179.170,  -39.070,  1.04000,  0,  422.400,  0.00000,  0.31920,  0.00000,  0.00000,  1.00000,  1,  100.0,  352.000,  105.600
4115,  '1',  39.540,  22.221,  67.090,  -14.630,  1.04000,  0,  158.160,  0.00000,  0.11310,  0.00000,  0.00000,  1.00000,  1,  100.0,  131.800,  39.540
4116,  '1',  39.540,  20.734,  67.090,  -14.630,  1.04000,  0,  158.160,  0.00000,  0.15150,  0.00000,  0.00000,  1.00000,  1,  100.0,  131.800,  39.540
4133,  '1',  0.000,  0.000,  17.100,  -3.730,  1.00000,  0,  40.320,  0.00000,  0.22730,  0.00000,  0.00000,  1.00000,  0,  100.0,  33.600,  10.080
4134,  '1',  0.000,  -3.730,  17.100,  -3.730,  1.00000,  0,  40.320,  0.00000,  0.18000,  0.00000,  0.00000,  1.00000,  0,  100.0,  33.600,  10.080
4135,  '1',  0.000,  -3.730,  17.100,  -3.730,  1.00000,  0,  40.320,  0.00000,  0.10840,  0.00000,  0.00000,  1.00000,  0,  100.0,  33.600,  10.080
4136,  '1',  0.000,  -3.730,  17.100,  -3.730,  1.00000,  0,  40.320,  0.00000,  0.18960,  0.00000,  0.00000,  1.00000,  0,  100.0,  33.600,  10.080
4137,  '1',  0.000,  0.000,  34.200,  -7.460,  1.00000,  0,  80.640,  0.00000,  0.27350,  0.00000,  0.00000,  1.00000,  0,  100.0,  67.200,  20.160
4138,  '1',  0.000,  0.000,  33.590,  -7.330,  1.00000,  0,  79.200,  0.00000,  0.16760,  0.00000,  0.00000,  1.00000,  0,  100.0,  66.000,  19.800
4142,  '1',  72.027,  18.388,  40.040,  -27.070,  1.04000,  0,  225.600,  0.00000,  1.00000,  0.00000,  0.00000,  1.00000,  1,  100.0,  188.000,  56.400
4153,  '1',  108.501,  41.479,  60.320,  -40.780,  1.04000,  0,  339.840,  0.00000,  1.00000,  0.00000,  0.00000,  1.00000,  1,  100.0,  283.200,  84.960
4160,  '1',  114.710,  19.470,  100.660,  -21.950,  1.03000,  0,  237.320,  0.00000,  0.18820,  0.00000,  0.00000,  1.00000,  1,  100.0,  197.770,  59.330
4161,  '1',  114.710,  10.364,  100.660,  -21.950,  1.03000,  0,  237.320,  0.00000,  0.12390,  0.00000,  0.00000,  1.00000,  1,  100.0,  197.770,  59.330
4162,  '1',  114.710,  8.041,  100.660,  -21.950,  1.03000,  0,  237.320,  0.00000,  0.17220,  0.00000,  0.00000,  1.00000,  1,  100.0,  197.770,  59.330
4166,  '1',  77.008,  -28.940,  42.810,  -28.940,  1.00000,  0,  241.200,  0.00000,  1.00000,  0.00000,  0.00000,  1.00000,  1,  100.0,  201.000,  60.300
4177,  '1',  57.469,  1.310,  31.950,  -21.600,  1.04000,  0,  180.000,  0.00000,  1.00000,  0.00000,  0.00000,  1.00000,  1,  100.0,  150.000,  45.000
4183,  '1',  77.774,  43.240,  43.240,  -29.230,  1.03000,  0,  243.600,  0.00000,  1.00000,  0.00000,  0.00000,  1.00000,  1,  100.0,  203.000,  60.900
4192,  '1',  756.789,  -4.023,  688.320,  -150.120,  1.02000,  0,  1622.76,  0.00000,  0.14340,  0.00000,  0.00000,  1.00000,  1,  100.0,  1352.31,  405.690
4194,  '1',  77.238,  30.444,  42.940,  -29.030,  1.02000,  0,  241.920,  0.00000,  1.00000,  0.00000,  0.00000,  1.00000,  1,  100.0,  201.600,  60.480
4195,  '1',  35.247,  -13.250,  19.600,  -13.250,  1.00000,  0,  110.400,  0.00000,  1.00000,  0.00000,  0.00000,  1.00000,  1,  100.0,  92.000,  27.600
5037,  '1',  222.100,  -34.240,  157.010,  -34.240,  1.02000,  0,  370.160,  0.00000,  0.29910,  0.00000,  0.00000,  1.00000,  1,  100.0,  308.470,  92.540
5038,  '1',  222.100,  -34.240,  157.010,  -34.240,  1.02000,  0,  370.160,  0.00000,  0.12330,  0.00000,  0.00000,  1.00000,  1,  100.0,  308.470,  92.540
5039,  '1',  222.100,  -34.240,  157.010,  -34.240,  1.02000,  0,  370.160,  0.00000,  0.21470,  0.00000,  0.00000,  1.00000,  1,  100.0,  308.470,  92.540
5040,  '1',  222.100,  -34.240,  157.010,  -34.240,  1.02000,  0,  370.160,  0.00000,  0.19240,  0.00000,  0.00000,  1.00000,  1,  100.0,  308.470,  92.540
5041,  '1',  222.100,  -34.240,  157.010,  -34.240,  1.02000,  0,  370.160,  0.00000,  0.11590,  0.00000,  0.00000,  1.00000,  1,  100.0,  308.470,  92.540
5042,  '1',  222.100,  -34.240,  157.010,  -34.240,  1.02000,  0,  370.160,  0.00000,  0.19130,  0.00000,  0.00000,  1.00000,  1,  100.0,  308.470,  92.540
5057,  '1',  228.450,  -35.230,  161.530,  -35.230,  1.00000,  0,  380.820,  0.00000,  0.19130,  0.00000,  0.00000,  1.00000,  1,  100.0,  317.350,  95.200
5058,  '1',  228.490,  -35.230,  161.530,  -35.230,  1.00000,  0,  380.820,  0.00000,  0.29820,  0.00000,  0.00000,  1.00000,  1,  100.0,  317.350,  95.200
5067,  '1',  315.550,  -5.649,  223.080,  -48.650,  1.03000,  0,  525.920,  0.00000,  0.32610,  0.00000,  0.00000,  1.00000,  1,  100.0,  438.270,  131.480
5068,  '1',  315.550,  -6.558,  223.080,  -48.650,  1.03000,  0,  525.920,  0.00000,  0.11690,  0.00000,  0.00000,  1.00000,  1,  100.0,  438.270,  131.480
5069,  '1',  315.550,  -6.559,  223.080,  -48.650,  1.03000,  0,  525.920,  0.00000,  0.10560,  0.00000,  0.00000,  1.00000,  1,  100.0,  438.270,  131.480
5089,  '1',  43.012,  17.451,  47.569,  -2.050,  1.01000,  0,  50.160,  0.00000,  0.24100,  0.00000,  0.00000,  1.00000,  1,  100.0,  123.900,  0.000
5166,  '1',  37.950,  24.186,  64.390,  -14.040,  1.04000,  0,  151.800,  0.00000,  0.13910,  0.00000,  0.00000,  1.00000,  1,  100.0,  126.500,  37.950
5206,  '1',  144.230,  -27.600,  126.570,  -27.600,  1.01000,  0,  298.400,  0.00000,  0.11980,  0.00000,  0.00000,  1.00000,  1,  100.0,  248.670,  74.600
5207,  '1',  144.230,  -27.600,  126.570,  -27.600,  1.01000,  0,  298.400,  0.00000,  0.18090,  0.00000,  0.00000,  1.00000,  1,  100.0,  248.670,  74.600
5208,  '1',  144.230,  -27.600,  126.570,  -27.600,  1.01000,  0,  298.400,  0.00000,  0.10560,  0.00000,  0.00000,  1.00000,  1,  100.0,  248.670,  74.600
5262,  '1',  1215.000,  -99.630,  447.120,  -99.630,  1.01000,  0,  1458.00,  0.00000,  0.26310,  0.00000,  0.00000,  1.00000,  1,  100.0,  1215.00,  364.500
5263,  '1',  1215.000,  -99.630,  447.120,  -99.630,  1.01000,  0,  1458.00,  0.00000,  0.16260,  0.00000,  0.00000,  1.00000,  1,  100.0,  1215.00,  364.500
5281,  '1',  80.320,  -29.720,  136.280,  -29.720,  1.00000,  0,  321.280,  0.00000,  0.10660,  0.00000,  0.00000,  1.00000,  1,  100.0,  267.730,  80.320
5282,  '1',  80.320,  -29.720,  136.280,  -29.720,  1.00000,  0,  321.280,  0.00000,  0.23940,  0.00000,  0.00000,  1.00000,  1,  100.0,  267.730,  80.320
5283,  '1',  80.320,  -29.720,  136.280,  -29.720,  1.00000,  0,  321.280,  0.00000,  0.10650,  0.00000,  0.00000,  1.00000,  1,  100.0,  267.730,  80.320
5302,  '1',  139.130,  45.413,  236.050,  -51.480,  1.04000,  0,  556.500,  0.00000,  0.13300,  0.00000,  0.00000,  1.00000,  1,  100.0,  463.750,  139.130
5303,  '1',  139.130,  61.323,  236.050,  -51.480,  1.04000,  0,  556.500,  0.00000,  0.17920,  0.00000,  0.00000,  1.00000,  1,  100.0,  463.750,  139.130
5319,  '1',  78.840,  -29.170,  133.770,  -29.170,  1.01000,  0,  315.360,  0.00000,  0.25070,  0.00000,  0.00000,  1.00000,  1,  100.0,  262.800,  78.840
5320,  '1',  78.840,  -29.170,  133.770,  -29.170,  1.01000,  0,  315.360,  0.00000,  0.28140,  0.00000,  0.00000,  1.00000,  1,  100.0,  262.800,  78.840
5321,  '1',  78.840,  -29.170,  133.770,  -29.170,  1.01000,  0,  315.360,  0.00000,  0.12810,  0.00000,  0.00000,  1.00000,  1,  100.0,  262.800,  78.840
5324,  '1',  204.530,  41.229,  144.590,  -31.530,  1.04000,  0,  340.880,  0.00000,  0.21670,  0.00000,  0.00000,  1.00000,  1,  100.0,  284.070,  85.220
5325,  '1',  204.530,  42.702,  144.590,  -31.530,  1.04000,  0,  340.880,  0.00000,  0.15030,  0.00000,  0.00000,  1.00000,  1,  100.0,  284.070,  85.220
5326,  '1',  204.530,  116.274,  144.590,  -31.530,  1.04000,  0,  340.880,  0.00000,  0.18810,  0.00000,  0.00000,  1.00000,  1,  100.0,  284.070,  85.220
5343,  '1',  72.034,  21.915,  79.667,  -3.430,  1.04000,  0,  84.000,  0.00000,  0.24140,  0.00000,  0.00000,  1.00000,  1,  100.0,  207.500,  0.000
5360,  '1',  354.824,  -134.706,  469.730,  -122.980,  1.01000,  0,  1209.60,  0.00000,  0.25510,  0.00000,  0.00000,  1.00000,  1,  100.0,  1008.00,  302.400
5364,  '1',  123.730,  -23.680,  108.590,  -23.680,  1.00000,  0,  256.000,  0.00000,  0.13030,  0.00000,  0.00000,  1.00000,  1,  100.0,  213.330,  64.000
5365,  '1',  123.730,  -23.680,  108.590,  -23.680,  1.00000,  0,  256.000,  0.00000,  0.11650,  0.00000,  0.00000,  1.00000,  1,  100.0,  213.330,  64.000
5366,  '1',  123.730,  -23.680,  108.590,  -23.680,  1.00000,  0,  256.000,  0.00000,  0.15490,  0.00000,  0.00000,  1.00000,  1,  100.0,  213.330,  64.000
5367,  '1',  123.730,  -23.680,  108.590,  -23.680,  1.00000,  0,  256.000,  0.00000,  0.10020,  0.00000,  0.00000,  1.00000,  1,  100.0,  213.330,  64.000
5368,  '1',  123.730,  -23.680,  108.590,  -23.680,  1.00000,  0,  256.000,  0.00000,  0.36180,  0.00000,  0.00000,  1.00000,  1,  100.0,  213.330,  64.000
5369,  '1',  123.730,  -23.680,  108.590,  -23.680,  1.00000,  0,  256.000,  0.00000,  0.24440,  0.00000,  0.00000,  1.00000,  1,  100.0,  213.330,  64.000
5382,  '1',  150.480,  70.099,  106.380,  -23.200,  1.04000,  0,  250.800,  0.00000,  0.24770,  0.00000,  0.00000,  1.00000,  1,  100.0,  209.000,  62.700
5383,  '1',  150.480,  61.740,  106.380,  -23.200,  1.04000,  0,  250.800,  0.00000,  0.39820,  0.00000,  0.00000,  1.00000,  1,  100.0,  209.000,  62.700
5403,  '1',  0.000,  45.500,  45.500,  -9.920,  1.03000,  0,  107.280,  0.00000,  0.19850,  0.00000,  0.00000,  1.00000,  0,  100.0,  89.400,  26.820
5404,  '1',  0.000,  45.500,  45.500,  -9.920,  1.03000,  0,  107.280,  0.00000,  0.13470,  0.00000,  0.00000,  1.00000,  0,  100.0,  89.400,  26.820
5405,  '1',  0.000,  45.500,  45.500,  -9.920,  1.03000,  0,  107.280,  0.00000,  0.14170,  0.00000,  0.00000,  1.00000,  0,  100.0,  89.400,  26.820
5406,  '1',  0.000,  45.500,  45.500,  -9.920,  1.03000,  0,  107.280,  0.00000,  0.12270,  0.00000,  0.00000,  1.00000,  0,  100.0,  89.400,  26.820
5415,  '1',  36.600,  -13.540,  62.100,  -13.540,  1.00000,  0,  146.400,  0.00000,  0.14030,  0.00000,  0.00000,  1.00000,  1,  100.0,  122.000,  36.600
5416,  '1',  36.600,  -13.540,  62.100,  -13.540,  1.00000,  0,  146.400,  0.00000,  0.26480,  0.00000,  0.00000,  1.00000,  1,  100.0,  122.000,  36.600
5417,  '1',  36.600,  -13.540,  62.100,  -13.540,  1.00000,  0,  146.400,  0.00000,  0.16960,  0.00000,  0.00000,  1.00000,  1,  100.0,  122.000,  36.600
5444,  '1',  604.980,  -223.840,  1026.440,  -223.840,  1.01000,  0,  2419.92,  0.00000,  0.34260,  0.00000,  0.00000,  1.00000,  1,  100.0,  2016.60,  604.980
6006,  '1',  123.540,  10.191,  108.420,  -23.640,  1.04000,  0,  255.600,  0.00000,  0.18770,  0.00000,  0.00000,  1.00000,  1,  100.0,  213.000,  63.900
6007,  '1',  306.720,  17.024,  216.830,  -47.290,  1.04000,  0,  511.200,  0.00000,  0.13420,  0.00000,  0.00000,  1.00000,  1,  100.0,  426.000,  127.800
6008,  '1',  115.030,  9.424,  100.950,  -22.010,  1.04000,  0,  238.000,  0.00000,  0.20160,  0.00000,  0.00000,  1.00000,  1,  100.0,  198.330,  59.500
6009,  '1',  115.030,  5.917,  100.950,  -22.010,  1.04000,  0,  238.000,  0.00000,  0.18430,  0.00000,  0.00000,  1.00000,  1,  100.0,  198.330,  59.500
6010,  '1',  115.030,  7.336,  100.950,  -22.010,  1.04000,  0,  238.000,  0.00000,  0.15620,  0.00000,  0.00000,  1.00000,  1,  100.0,  198.330,  59.500
6042,  '1',  111.158,  7.883,  122.908,  -5.290,  1.04000,  0,  129.600,  0.00000,  0.18770,  0.00000,  0.00000,  1.00000,  1,  100.0,  320.200,  0.000
6048,  '1',  0.000,  0.000,  1.730,  -0.380,  1.04000,  0,  4.080,  0.00000,  0.11720,  0.00000,  0.00000,  1.00000,  0,  100.0,  3.400,  1.020
6049,  '1',  0.000,  4.890,  4.890,  -1.070,  1.04000,  0,  11.520,  0.00000,  0.18260,  0.00000,  0.00000,  1.00000,  0,  100.0,  9.600,  2.880
6050,  '1',  0.000,  0.000,  2.240,  -0.490,  1.04000,  0,  5.280,  0.00000,  0.36280,  0.00000,  0.00000,  1.00000,  0,  100.0,  4.400,  1.320
6052,  '1',  0.000,  29.220,  29.220,  -6.370,  1.04000,  0,  68.880,  0.00000,  0.12090,  0.00000,  0.00000,  1.00000,  0,  100.0,  57.400,  17.220
6069,  '1',  54.410,  -13.457,  92.320,  -20.130,  1.03000,  0,  217.640,  0.00000,  0.22480,  0.00000,  0.00000,  1.00000,  1,  100.0,  181.370,  54.410
6070,  '1',  54.410,  -5.601,  92.320,  -20.130,  1.03000,  0,  217.640,  0.00000,  0.24660,  0.00000,  0.00000,  1.00000,  1,  100.0,  181.370,  54.410
6071,  '1',  54.410,  -16.476,  92.320,  -20.130,  1.03000,  0,  217.640,  0.00000,  0.15280,  0.00000,  0.00000,  1.00000,  1,  100.0,  181.370,  54.410
6072,  '1',  54.410,  -6.574,  92.320,  -20.130,  1.03000,  0,  217.640,  0.00000,  0.19250,  0.00000,  0.00000,  1.00000,  1,  100.0,  181.370,  54.410
6073,  '1',  54.410,  -10.121,  92.320,  -20.130,  1.03000,  0,  217.640,  0.00000,  0.14260,  0.00000,  0.00000,  1.00000,  1,  100.0,  181.370,  54.410
6074,  '1',  54.410,  -10.552,  92.320,  -20.130,  1.03000,  0,  217.640,  0.00000,  0.11150,  0.00000,  0.00000,  1.00000,  1,  100.0,  181.370,  54.410
6078,  '1',  169.000,  -68.730,  262.510,  -68.730,  1.00000,  0,  676.000,  0.00000,  0.28900,  0.00000,  0.00000,  1.00000,  1,  100.0,  563.330,  169.000
6079,  '1',  169.000,  -68.730,  262.510,  -68.730,  1.00000,  0,  676.000,  0.00000,  0.25330,  0.00000,  0.00000,  1.00000,  1,  100.0,  563.330,  169.000
6080,  '1',  169.000,  -68.730,  262.510,  -68.730,  1.00000,  0,  676.000,  0.00000,  0.32510,  0.00000,  0.00000,  1.00000,  1,  100.0,  563.330,  169.000
6104,  '1',  0.000,  30.790,  30.790,  -6.720,  1.04000,  0,  72.600,  0.00000,  0.21100,  0.00000,  0.00000,  1.00000,  0,  100.0,  60.500,  18.150
6105,  '1',  0.000,  30.790,  30.790,  -6.720,  1.04000,  0,  72.600,  0.00000,  0.31280,  0.00000,  0.00000,  1.00000,  0,  100.0,  60.500,  18.150
6106,  '1',  0.000,  61.590,  61.590,  -13.430,  1.04000,  0,  145.200,  0.00000,  0.12010,  0.00000,  0.00000,  1.00000,  0,  100.0,  121.000,  36.300
6110,  '1',  177.180,  19.047,  275.220,  -72.050,  1.04000,  0,  708.720,  0.00000,  0.16800,  0.00000,  0.00000,  1.00000,  1,  100.0,  590.600,  177.180
6111,  '1',  198.450,  19.478,  308.260,  -80.700,  1.04000,  0,  793.800,  0.00000,  0.21900,  0.00000,  0.00000,  1.00000,  1,  100.0,  661.500,  198.450
6144,  '1',  0.000,  -0.930,  4.280,  -0.930,  1.03000,  0,  10.080,  0.00000,  0.21910,  0.00000,  0.00000,  1.00000,  0,  100.0,  8.400,  2.520
6145,  '1',  321.120,  -6.356,  227.010,  -49.510,  1.03000,  0,  535.200,  0.00000,  0.14770,  0.00000,  0.00000,  1.00000,  1,  100.0,  446.000,  133.800
6146,  '1',  321.120,  -6.695,  227.010,  -49.510,  1.03000,  0,  535.200,  0.00000,  0.11950,  0.00000,  0.00000,  1.00000,  1,  100.0,  446.000,  133.800
6147,  '1',  104.279,  -12.838,  474.390,  -103.450,  1.03000,  0,  1118.40,  0.00000,  0.10440,  0.00000,  0.00000,  1.00000,  1,  100.0,  932.000,  279.600
6148,  '1',  216.600,  -20.998,  367.500,  -80.140,  1.03000,  0,  866.400,  0.00000,  0.23830,  0.00000,  0.00000,  1.00000,  1,  100.0,  722.000,  216.600
6149,  '1',  216.600,  -39.229,  367.500,  -80.140,  1.03000,  0,  866.400,  0.00000,  0.12770,  0.00000,  0.00000,  1.00000,  1,  100.0,  722.000,  216.600
6164,  '1',  136.330,  -7.260,  119.640,  -26.090,  1.03000,  0,  282.060,  0.00000,  0.30070,  0.00000,  0.00000,  1.00000,  1,  100.0,  235.050,  70.520
6165,  '1',  136.330,  -7.088,  119.640,  -26.090,  1.03000,  0,  282.060,  0.00000,  0.18390,  0.00000,  0.00000,  1.00000,  1,  100.0,  235.050,  70.520
6166,  '1',  136.330,  -15.946,  119.640,  -26.090,  1.03000,  0,  282.060,  0.00000,  0.25100,  0.00000,  0.00000,  1.00000,  1,  100.0,  235.050,  70.520
6167,  '1',  136.330,  -8.484,  119.640,  -26.090,  1.03000,  0,  282.060,  0.00000,  0.13970,  0.00000,  0.00000,  1.00000,  1,  100.0,  235.050,  70.520
6213,  '1',  61.758,  -2.940,  68.286,  -2.940,  1.04000,  0,  72.000,  0.00000,  0.33650,  0.00000,  0.00000,  1.00000,  1,  100.0,  177.900,  0.000
6214,  '1',  191.731,  -5.496,  212.059,  -9.130,  1.04000,  0,  223.600,  0.00000,  0.21900,  0.00000,  0.00000,  1.00000,  1,  100.0,  552.300,  0.000
6215,  '1',  191.731,  -9.130,  212.059,  -9.130,  1.04000,  0,  223.600,  0.00000,  0.20110,  0.00000,  0.00000,  1.00000,  1,  100.0,  552.300,  0.000
6216,  '1',  191.731,  -9.130,  212.059,  -9.130,  1.04000,  0,  223.600,  0.00000,  0.37760,  0.00000,  0.00000,  1.00000,  1,  100.0,  552.300,  0.000
6242,  '1',  0.000,  15.725,  31.050,  -6.770,  1.04000,  0,  73.200,  0.00000,  0.14010,  0.00000,  0.00000,  1.00000,  0,  100.0,  61.000,  18.300
6243,  '1',  106.140,  17.997,  93.150,  -20.310,  1.04000,  0,  219.600,  0.00000,  0.28800,  0.00000,  0.00000,  1.00000,  1,  100.0,  183.000,  54.900
6244,  '1',  214.560,  21.969,  151.680,  -33.080,  1.04000,  0,  357.600,  0.00000,  0.12500,  0.00000,  0.00000,  1.00000,  1,  100.0,  298.000,  89.400
...
 0 /End of Generator data, Begin Branch data
1004,  1023,  '99',  0.01133,  0.34547,  0.00000,  0.00,  0.00,  0.00,  0.00000,  0.000,  0.00000,  0.00000,  0.00000,  0.00000,  1
1004,  1057,  '99',  0.65972,  4.28983,  0.00000,  0.00,  0.00,  0.00,  0.00000,  0.000,  0.00000,  0.00000,  0.00000,  0.00000,  1
1004,  2019,  '99',  0.12449,  1.18281,  0.00000,  0.00,  0.00,  0.00,  0.00000,  0.000,  0.00000,  0.00000,  0.00000,  0.00000,  1
1004,  2062,  '99',  0.90105,  4.38239,  0.00000,  0.00,  0.00,  0.00,  0.00000,  0.000,  0.00000,  0.00000,  0.00000,  0.00000,  1
1004,  2100,  '99',  0.05232,  0.64274,  0.00000,  0.00,  0.00,  0.00,  0.00000,  0.000,  0.00000,  0.00000,  0.00000,  0.00000,  1
1004,  2127,  '99',  0.18279,  1.01733,  0.00000,  0.00,  0.00,  0.00,  0.00000,  0.000,  0.00000,  0.00000,  0.00000,  0.00000,  1
1004,  3034,  '99',  0.36445,  2.72482,  0.00000,  0.00,  0.00,  0.00,  0.00000,  0.000,  0.00000,  0.00000,  0.00000,  0.00000,  1
1004,  3039,  '99',  0.03264,  0.33491,  0.00000,  0.00,  0.00,  0.00,  0.00000,  0.000,  0.00000,  0.00000,  0.00000,  0.00000,  1
1004,  3048,  '99',  0.04368,  0.32440,  0.00000,  0.00,  0.00,  0.00,  0.00000,  0.000,  0.00000,  0.00000,  0.00000,  0.00000,  1
1004,  3055,  '99',  0.83457,  4.80709,  0.00000,  0.00,  0.00,  0.00,  0.00000,  0.000,  0.00000,  0.00000,  0.00000,  0.00000,  1
1004,  3081,  '99',  0.04013,  0.42589,  0.00000,  0.00,  0.00,  0.00,  0.00000,  0.000,  0.00000,  0.00000,  0.00000,  0.00000,  1
1004,  3087,  '99',  0.40274,  3.13543,  0.00000,  0.00,  0.00,  0.00,  0.00000,  0.000,  0.00000,  0.00000,  0.00000,  0.00000,  1
1004,  3098,  '99',  0.03025,  0.47001,  0.00000,  0.00,  0.00,  0.00,  0.00000,  0.000,  0.00000,  0.00000,  0.00000,  0.00000,  1
1004,  3110,  '99',  0.06271,  0.51359,  0.00000,  0.00,  0.00,  0.00,  0.00000,  0.000,  0.00000,  0.00000,  0.00000,  0.00000,  1
1004,  3118,  '99',  0.21421,  2.05580,  0.00000,  0.00,  0.00,  0.00,  0.00000,  0.000,  0.00000,  0.00000,  0.00000,  0.00000,  1
1004,  3127,  '99',  1.12675,  4.68304,  0.00000,  0.00,  0.00,  0.00,  0.00000,  0.000,  0.00000,  0.00000,  0.00000,  0.00000,  1
1004,  3129,  '99',  1.17974,  3.80242,  0.00000,  0.00,  0.00,  0.00,  0.00000,  0.000,  0.00000,  0.00000,  0.00000,  0.00000,  1
1009,  1012,  '99',  0.32247,  2.51376,  0.00000,  0.00,  0.00,  0.00,  0.00000,  0.000,  0.00000,  0.00000,  0.00000,  0.00000,  1
1009,  1033,  '99',  0.08061,  0.72086,  0.00000,  0.00,  0.00,  0.00,  0.00000,  0.000,  0.00000,  0.00000,  0.00000,  0.00000,  1
1009,  1039,  '99',  1.28170,  4.42338,  0.00000,  0.00,  0.00,  0.00,  0.00000,  0.000,  0.00000,  0.00000,  0.00000,  0.00000,  1
1009,  1046,  '99',  0.20356,  1.75002,  0.00000,  0.00,  0.00,  0.00,  0.00000,  0.000,  0.00000,  0.00000,  0.00000,  0.00000,  1
1009,  1070,  '99',  -0.01002,  0.43537,  0.00000,  0.00,  0.00,  0.00,  0.00000,  0.000,  0.00000,  0.00000,  0.00000,  0.00000,  1
1009,  1082,  '99',  0.10608,  0.48869,  0.00000,  0.00,  0.00,  0.00,  0.00000,  0.000,  0.00000,  0.00000,  0.00000,  0.00000,  1
1012,  1046,  '99',  0.16966,  0.61096,  0.00000,  0.00,  0.00,  0.00,  0.00000,  0.000,  0.00000,  0.00000,  0.00000,  0.00000,  1
1012,  1070,  '99',  0.10740,  1.15426,  0.00000,  0.00,  0.00,  0.00,  0.00000,  0.000,  0.00000,  0.00000,  0.00000,  0.00000,  1
1012,  1082,  '99',  0.44306,  1.45740,  0.00000,  0.00,  0.00,  0.00,  0.00000,  0.000,  0.00000,  0.00000,  0.00000,  0.00000,  1
1012,  -3051,  '1',  0.05710,  0.24977,  0.03804,  149.00,  0.00,  0.00,  0.00000,  0.000,  0.00000,  0.00000,  0.00000,  0.00000,  1
1021,  1026,  '99',  0.02071,  0.81873,  0.00000,  0.00,  0.00,  0.00,  0.00000,  0.000,  0.00000,  0.00000,  0.00000,  0.00000,  1
1021,  1035,  '99',  0.85927,  4.55141,  0.00000,  0.00,  0.00,  0.00,  0.00000,  0.000,  0.00000,  0.00000,  0.00000,  0.00000,  1
1021,  1042,  '99',  0.79621,  4.75397,  0.00000,  0.00,  0.00,  0.00,  0.00000,  0.000,  0.00000,  0.00000,  0.00000,  0.00000,  1
1021,  1063,  '99',  0.14532,  2.40587,  0.00000,  0.00,  0.00,  0.00,  0.00000,  0.000,  0.00000,  0.00000,  0.00000,  0.00000,  1
1021,  1084,  '99',  0.01298,  0.19288,  0.00000,  0.00,  0.00,  0.00,  0.00000,  0.000,  0.00000,  0.00000,  0.00000,  0.00000,  1
1021,  3019,  '99',  0.10419,  2.90645,  0.00000,  0.00,  0.00,  0.00,  0.00000,  0.000,  0.00000,  0.00000,  0.00000,  0.00000,  1
1021,  3048,  '99',  0.42482,  3.62471,  0.00000,  0.00,  0.00,  0.00,  0.00000,  0.000,  0.00000,  0.00000,  0.00000,  0.00000,  1
1021,  3141,  '99',  1.25806,  4.36832,  0.00000,  0.00,  0.00,  0.00,  0.00000,  0.000,  0.00000,  0.00000,  0.00000,  0.00000,  1
1023,  2100,  '99',  0.09586,  4.32467,  0.00000,  0.00,  0.00,  0.00,  0.00000,  0.000,  0.00000,  0.00000,  0.00000,  0.00000,  1
1023,  3098,  '99',  0.01826,  3.10229,  0.00000,  0.00,  0.00,  0.00,  0.00000,  0.000,  0.00000,  0.00000,  0.00000,  0.00000,  1
1023,  3110,  '99',  0.08573,  0.92641,  0.00000,  0.00,  0.00,  0.00,  0.00000,  0.000,  0.00000,  0.00000,  0.00000,  0.00000,  1
1026,  1035,  '99',  0.57182,  3.27025,  0.00000,  0.00,  0.00,  0.00,  0.00000,  0.000,  0.00000,  0.00000,  0.00000,  0.00000,  1
1026,  1042,  '99',  0.52588,  3.42254,  0.00000,  0.00,  0.00,  0.00,  0.00000,  0.000,  0.00000,  0.00000,  0.00000,  0.00000,  1
1026,  1063,  '99',  0.07437,  1.84730,  0.00000,  0.00,  0.00,  0.00,  0.00000,  0.000,  0.00000,  0.00000,  0.00000,  0.00000,  1
1026,  1066,  '99',  0.78228,  4.62137,  0.00000,  0.00,  0.00,  0.00,  0.00000,  0.000,  0.00000,  0.00000,  0.00000,  0.00000,  1
1026,  1084,  '99',  0.07659,  0.48833,  0.00000,  0.00,  0.00,  0.00,  0.00000,  0.000,  0.00000,  0.00000,  0.00000,  0.00000,  1
1033,  1035,  '99',  -0.19182,  2.76937,  0.00000,  0.00,  0.00,  0.00,  0.00000,  0.000,  0.00000,  0.00000,  0.00000,  0.00000,  1
1033,  1039,  '99',  0.06587,  0.83638,  0.00000,  0.00,  0.00,  0.00,  0.00000,  0.000,  0.00000,  0.00000,  0.00000,  0.00000,  1
1033,  1046,  '99',  1.33828,  4.41270,  0.00000,  0.00,  0.00,  0.00,  0.00000,  0.000,  0.00000,  0.00000,  0.00000,  0.00000,  1
1033,  1070,  '99',  0.17669,  1.12600,  0.00000,  0.00,  0.00,  0.00,  0.00000,  0.000,  0.00000,  0.00000,  0.00000,  0.00000,  1
1033,  1081,  '99',  0.00300,  0.03099,  0.00000,  0.00,  0.00,  0.00,  0.00000,  0.000,  0.00000,  0.00000,  0.00000,  0.00000,  1
1033,  1082,  '99',  0.10822,  0.36292,  0.00000,  0.00,  0.00,  0.00,  0.00000,  0.000,  0.00000,  0.00000,  0.00000,  0.00000,  1
1033,  3050,  '1',  0.01390,  0.13600,  0.26200,  647.00,  0.00,  0.00,  0.00000,  0.000,  0.00000,  0.00000,  0.00000,  0.00000,  1
1035,  1042,  '99',  0.00551,  0.66841,  0.00000,  0.00,  0.00,  0.00,  0.00000,  0.000,  0.00000,  0.00000,  0.00000,  0.00000,  1
1035,  1057,  '99',  0.16293,  2.57100,  0.00000,  0.00,  0.00,  0.00,  0.00000,  0.000,  0.00000,  0.00000,  0.00000,  0.00000,  1
1035,  1063,  '99',  0.14468,  1.24419,  0.00000,  0.00,  0.00,  0.00,  0.00000,  0.000,  0.00000,  0.00000,  0.00000,  0.00000,  1
1035,  1066,  '99',  0.03126,  0.94929,  0.00000,  0.00,  0.00,  0.00,  0.00000,  0.000,  0.00000,  0.00000,  0.00000,  0.00000,  1
1035,  1084,  '99',  0.82339,  2.48193,  0.00000,  0.00,  0.00,  0.00,  0.00000,  0.000,  0.00000,  0.00000,  0.00000,  0.00000,  1
1039,  1048,  '99',  0.08251,  3.11088,  0.00000,  0.00,  0.00,  0.00,  0.00000,  0.000,  0.00000,  0.00000,  0.00000,  0.00000,  1
1039,  1053,  '99',  0.00718,  4.16425,  0.00000,  0.00,  0.00,  0.00,  0.00000,  0.000,  0.00000,  0.00000,  0.00000,  0.00000,  1
1039,  1082,  '99',  0.01267,  0.17145,  0.00000,  0.00,  0.00,  0.00,  0.00000,  0.000,  0.00000,  0.00000,  0.00000,  0.00000,  1
1042,  1057,  '99',  0.00735,  1.86711,  0.00000,  0.00,  0.00,  0.00,  0.00000,  0.000,  0.00000,  0.00000,  0.00000,  0.00000,  1
1042,  1063,  '99',  0.11269,  1.25994,  0.00000,  0.00,  0.00,  0.00,  0.00000,  0.000,  0.00000,  0.00000,  0.00000,  0.00000,  1
1042,  1066,  '99',  -0.01653,  0.58187,  0.00000,  0.00,  0.00,  0.00,  0.00000,  0.000,  0.00000,  0.00000,  0.00000,  0.00000,  1
1042,  1084,  '99',  0.77510,  2.52594,  0.00000,  0.00,  0.00,  0.00,  0.00000,  0.000,  0.00000,  0.00000,  0.00000,  0.00000,  1
1046,  1070,  '99',  0.06520,  0.80324,  0.00000,  0.00,  0.00,  0.00,  0.00000,  0.000,  0.00000,  0.00000,  0.00000,  0.00000,  1
1046,  1082,  '99',  0.29604,  1.01671,  0.00000,  0.00,  0.00,  0.00,  0.00000,  0.000,  0.00000,  0.00000,  0.00000,  0.00000,  1
1046,  3009,  '1',  0.05654,  0.23454,  0.03980,  149.00,  0.00,  0.00,  0.00000,  0.000,  0.00000,  0.00000,  0.00000,  0.00000,  1
1048,  1049,  '99',  0.00162,  0.34075,  0.00000,  0.00,  0.00,  0.00,  0.00000,  0.000,  0.00000,  0.00000,  0.00000,  0.00000,  1
1048,  1053,  '99',  0.00190,  0.25473,  0.00000,  0.00,  0.00,  0.00,  0.00000,  0.000,  0.00000,  0.00000,  0.00000,  0.00000,  1
1048,  1076,  '99',  0.43302,  2.87746,  0.00000,  0.00,  0.00,  0.00,  0.00000,  0.000,  0.00000,  0.00000,  0.00000,  0.00000,  1
1048,  1081,  '99',  0.57034,  3.86734,  0.00000,  0.00,  0.00,  0.00,  0.00000,  0.000,  0.00000,  0.00000,  0.00000,  0.00000,  1
1048,  1082,  '99',  0.41593,  1.76696,  0.00000,  0.00,  0.00,  0.00,  0.00000,  0.000,  0.00000,  0.00000,  0.00000,  0.00000,  1
1048,  3048,  '99',  0.42274,  3.06324,  0.00000,  0.00,  0.00,  0.00,  0.00000,  0.000,  0.00000,  0.00000,  0.00000,  0.00000,  1
1049,  1053,  '99',  -0.00913,  0.45588,  0.00000,  0.00,  0.00,  0.00,  0.00000,  0.000,  0.00000,  0.00000,  0.00000,  0.00000,  1
1049,  1082,  '99',  0.65732,  3.18211,  0.00000,  0.00,  0.00,  0.00,  0.00000,  0.000,  0.00000,  0.00000,  0.00000,  0.00000,  1
1053,  1076,  '99',  0.48382,  3.86361,  0.00000,  0.00,  0.00,  0.00,  0.00000,  0.000,  0.00000,  0.00000,  0.00000,  0.00000,  1
1053,  1081,  '99',  0.00299,  0.02983,  0.00000,  0.00,  0.00,  0.00,  0.00000,  0.000,  0.00000,  0.00000,  0.00000,  0.00000,  1
1053,  1082,  '99',  0.49778,  2.37751,  0.00000,  0.00,  0.00,  0.00,  0.00000,  0.000,  0.00000,  0.00000,  0.00000,  0.00000,  1
1053,  3048,  '99',  0.46390,  4.11180,  0.00000,  0.00,  0.00,  0.00,  0.00000,  0.000,  0.00000,  0.00000,  0.00000,  0.00000,  1
...